<?xml version="1.0" encoding="UTF-8"?>

<!-- generated on 2023-05-20 22:49:31 by Eclipse SUMO netconvert Version 1.16.0
<configuration xmlns:xsi="http://www.w3.org/2001/XMLSchema-instance" xsi:noNamespaceSchemaLocation="http://sumo.dlr.de/xsd/netconvertConfiguration.xsd">

    <input>
        <node-files value="creators/sumo_files/app.nod.xml"/>
        <edge-files value="creators/sumo_files/app.edg.xml"/>
        <connection-files value="creators/sumo_files/app.con.xml"/>
        <type-files value="creators/sumo_files/app.typ.xml"/>
    </input>

    <output>
        <output-file value="creators/sumo_files/app.net.xml"/>
    </output>

    <junctions>
        <no-turnarounds value="true"/>
    </junctions>

</configuration>
-->

<net version="1.16" junctionCornerDetail="5" limitTurnSpeed="5.50" xmlns:xsi="http://www.w3.org/2001/XMLSchema-instance" xsi:noNamespaceSchemaLocation="http://sumo.dlr.de/xsd/net_file.xsd">

    <location netOffset="500.00,500.00" convBoundary="0.00,0.00,1000.00,1000.00" origBoundary="-500.00,-500.00,500.00,500.00" projParameter="!"/>

    <type id="T1" priority="1" numLanes="1" speed="13.89"/>
    <type id="T2" priority="1" numLanes="2" speed="13.89"/>
    <type id="T3" priority="1" numLanes="3" speed="13.89"/>
    <type id="T4" priority="1" numLanes="4" speed="13.89"/>
    <type id="T5" priority="1" numLanes="5" speed="13.89"/>
    <type id="T6" priority="1" numLanes="6" speed="13.89"/>

    <edge id=":0_0" function="internal">
        <lane id=":0_0_0" index="0" speed="6.51" length="9.03" shape="485.60,523.20 485.25,520.75 484.20,519.00 482.45,517.95 480.00,517.60"/>
        <lane id=":0_0_1" index="1" speed="7.33" length="11.73" shape="485.60,523.20 485.25,519.35 484.20,516.60 482.45,514.95 480.00,514.40"/>
        <lane id=":0_0_2" index="2" speed="8.10" length="14.57" shape="485.60,523.20 485.25,517.95 484.20,514.20 482.45,511.95 480.00,511.20"/>
        <lane id=":0_0_3" index="3" speed="9.32" length="19.63" shape="488.80,523.20 488.25,516.55 486.60,511.80 483.85,508.95 480.00,508.00"/>
        <lane id=":0_0_4" index="4" speed="9.94" length="22.48" shape="488.80,523.20 488.25,515.15 486.60,509.40 483.85,505.95 480.00,504.80"/>
        <lane id=":0_0_5" index="5" speed="10.54" length="25.39" shape="488.80,523.20 488.25,513.75 486.60,507.00 483.85,502.95 480.00,501.60"/>
    </edge>
    <edge id=":0_6" function="internal">
        <lane id=":0_6_0" index="0" speed="13.89" length="43.28" shape="492.00,523.20 492.00,480.00"/>
        <lane id=":0_6_1" index="1" speed="13.89" length="43.28" shape="492.00,523.20 495.20,480.00"/>
        <lane id=":0_6_2" index="2" speed="13.89" length="43.28" shape="495.20,523.20 498.40,480.00"/>
    </edge>
    <edge id=":0_9" function="internal">
        <lane id=":0_9_0" index="0" speed="13.13" length="10.21" shape="498.40,523.20 499.84,513.09"/>
    </edge>
    <edge id=":0_48" function="internal">
        <lane id=":0_48_0" index="0" speed="13.13" length="29.79" shape="499.84,513.09 499.95,512.35 504.60,504.60 512.35,499.95 523.20,498.40"/>
    </edge>
    <edge id=":0_10" function="internal">
        <lane id=":0_10_0" index="0" speed="8.83" length="17.50" shape="523.20,508.00 520.75,508.95 519.00,511.80 517.95,516.55 517.60,523.20"/>
        <lane id=":0_10_1" index="1" speed="9.32" length="19.63" shape="523.20,508.00 519.35,508.95 516.60,511.80 514.95,516.55 514.40,523.20"/>
        <lane id=":0_10_2" index="2" speed="9.84" length="21.99" shape="523.20,508.00 517.95,508.95 514.20,511.80 511.95,516.55 511.20,523.20"/>
        <lane id=":0_10_3" index="3" speed="10.36" length="24.51" shape="523.20,508.00 516.55,508.95 511.80,511.80 508.95,516.55 508.00,523.20"/>
        <lane id=":0_10_4" index="4" speed="10.88" length="27.14" shape="523.20,508.00 515.15,508.95 509.40,511.80 505.95,516.55 504.80,523.20"/>
        <lane id=":0_10_5" index="5" speed="11.39" length="29.85" shape="523.20,508.00 513.75,508.95 507.00,511.80 502.95,516.55 501.60,523.20"/>
    </edge>
    <edge id=":0_16" function="internal">
        <lane id=":0_16_0" index="0" speed="13.89" length="43.93" shape="523.20,504.80 513.29,506.80 504.42,511.20 494.14,515.60 480.00,517.60"/>
        <lane id=":0_16_1" index="1" speed="13.89" length="43.93" shape="523.20,504.80 513.23,506.30 504.27,509.60 493.98,512.90 480.00,514.40"/>
        <lane id=":0_16_2" index="2" speed="13.89" length="43.93" shape="523.20,504.80 513.19,505.80 504.16,508.00 493.85,510.20 480.00,511.20"/>
        <lane id=":0_16_3" index="3" speed="13.89" length="43.93" shape="523.20,504.80 480.00,508.00"/>
        <lane id=":0_16_4" index="4" speed="13.89" length="43.93" shape="523.20,504.80 480.00,504.80"/>
        <lane id=":0_16_5" index="5" speed="13.89" length="43.93" shape="523.20,504.80 480.00,501.60"/>
    </edge>
    <edge id=":0_22" function="internal">
        <lane id=":0_22_0" index="0" speed="13.03" length="39.36" shape="523.20,501.60 514.58,499.29 504.27,493.65 495.62,486.58 492.00,480.00"/>
        <lane id=":0_22_1" index="1" speed="12.64" length="36.97" shape="523.20,501.60 515.08,499.37 505.87,493.85 498.33,486.81 495.20,480.00"/>
        <lane id=":0_22_2" index="2" speed="12.26" length="34.71" shape="523.20,501.60 515.58,499.46 507.47,494.08 501.02,487.07 498.40,480.00"/>
    </edge>
    <edge id=":0_25" function="internal">
        <lane id=":0_25_0" index="0" speed="10.88" length="27.14" shape="508.00,480.00 508.95,488.05 511.80,493.80 516.55,497.25 523.20,498.40"/>
    </edge>
    <edge id=":0_26" function="internal">
        <lane id=":0_26_0" index="0" speed="13.89" length="43.93" shape="504.80,480.00 506.80,489.91 511.20,498.78 515.60,509.06 517.60,523.20"/>
        <lane id=":0_26_1" index="1" speed="13.89" length="43.93" shape="504.80,480.00 506.30,489.97 509.60,498.93 512.90,509.22 514.40,523.20"/>
        <lane id=":0_26_2" index="2" speed="13.89" length="43.93" shape="504.80,480.00 505.80,490.01 508.00,499.04 510.20,509.35 511.20,523.20"/>
        <lane id=":0_26_3" index="3" speed="13.89" length="43.93" shape="504.80,480.00 508.00,523.20"/>
        <lane id=":0_26_4" index="4" speed="13.89" length="43.93" shape="504.80,480.00 504.80,523.20"/>
        <lane id=":0_26_5" index="5" speed="13.89" length="43.93" shape="504.80,480.00 501.60,523.20"/>
    </edge>
    <edge id=":0_32" function="internal">
        <lane id=":0_32_0" index="0" speed="13.89" length="18.59" shape="501.60,480.00 500.25,496.45 499.57,498.42"/>
        <lane id=":0_32_1" index="1" speed="13.89" length="16.61" shape="501.60,480.00 500.25,495.05 499.72,496.45"/>
        <lane id=":0_32_2" index="2" speed="13.58" length="14.72" shape="501.60,480.00 500.25,493.65 499.87,494.57"/>
        <lane id=":0_32_3" index="3" speed="13.15" length="12.90" shape="501.60,480.00 500.25,492.25 500.01,492.78"/>
        <lane id=":0_32_4" index="4" speed="12.72" length="11.16" shape="501.60,480.00 500.25,490.85 500.14,491.05"/>
        <lane id=":0_32_5" index="5" speed="12.28" length="9.55" shape="501.60,480.00 500.25,489.45"/>
    </edge>
    <edge id=":0_49" function="internal">
        <lane id=":0_49_0" index="0" speed="13.89" length="29.84" shape="499.57,498.42 496.20,508.20 489.45,515.25 480.00,517.60"/>
    </edge>
    <edge id=":0_50" function="internal">
        <lane id=":0_50_0" index="0" speed="13.89" length="29.01" shape="499.72,496.45 496.20,505.80 489.45,512.25 480.00,514.40"/>
    </edge>
    <edge id=":0_51" function="internal">
        <lane id=":0_51_0" index="0" speed="13.58" length="28.14" shape="499.87,494.57 496.20,503.40 489.45,509.25 480.00,511.20"/>
    </edge>
    <edge id=":0_52" function="internal">
        <lane id=":0_52_0" index="0" speed="13.15" length="27.22" shape="500.01,492.78 496.20,501.00 489.45,506.25 480.00,508.00"/>
    </edge>
    <edge id=":0_53" function="internal">
        <lane id=":0_53_0" index="0" speed="12.72" length="26.29" shape="500.14,491.05 496.20,498.60 489.45,503.25 480.00,504.80"/>
    </edge>
    <edge id=":0_54" function="internal">
        <lane id=":0_54_0" index="0" speed="12.28" length="25.29" shape="500.25,489.45 496.20,496.20 489.45,500.25 480.00,501.60"/>
    </edge>
    <edge id=":0_38" function="internal">
        <lane id=":0_38_0" index="0" speed="8.10" length="14.57" shape="480.00,485.60 485.25,485.25 489.00,484.20 491.25,482.45 492.00,480.00"/>
        <lane id=":0_38_1" index="1" speed="8.83" length="17.50" shape="480.00,485.60 486.65,485.25 491.40,484.20 494.25,482.45 495.20,480.00"/>
        <lane id=":0_38_2" index="2" speed="9.51" length="20.48" shape="480.00,485.60 488.05,485.25 493.80,484.20 497.25,482.45 498.40,480.00"/>
    </edge>
    <edge id=":0_41" function="internal">
        <lane id=":0_41_0" index="0" speed="13.89" length="44.45" shape="480.00,488.80 495.38,490.30 508.02,493.60 517.45,496.90 523.20,498.40"/>
    </edge>
    <edge id=":0_42" function="internal">
        <lane id=":0_42_0" index="0" speed="13.89" length="50.18" shape="480.00,492.00 489.62,495.68 502.13,504.41 512.98,514.73 517.60,523.20"/>
        <lane id=":0_42_1" index="1" speed="13.89" length="47.87" shape="480.00,492.00 489.12,495.62 500.53,504.27 510.27,514.58 514.40,523.20"/>
        <lane id=":0_42_2" index="2" speed="13.68" length="43.47" shape="480.00,495.20 488.62,498.32 498.93,505.87 507.58,515.08 511.20,523.20"/>
        <lane id=":0_42_3" index="3" speed="13.89" length="45.16" shape="480.00,495.20 492.25,496.95 501.00,502.20 506.25,510.95 508.00,523.20"/>
        <lane id=":0_42_4" index="4" speed="12.62" length="36.84" shape="480.00,498.40 487.62,501.02 495.73,507.47 502.17,515.58 504.80,523.20"/>
        <lane id=":0_42_5" index="5" speed="12.72" length="37.45" shape="480.00,498.40 489.45,499.95 496.20,504.60 500.25,512.35 501.60,523.20"/>
    </edge>

    <edge id="E_0_1" from="0" to="1" priority="1" type="T6">
        <lane id="E_0_1_0" index="0" speed="13.89" length="480.00" shape="480.00,517.60 0.00,517.60"/>
        <lane id="E_0_1_1" index="1" speed="13.89" length="480.00" shape="480.00,514.40 0.00,514.40"/>
        <lane id="E_0_1_2" index="2" speed="13.89" length="480.00" shape="480.00,511.20 0.00,511.20"/>
        <lane id="E_0_1_3" index="3" speed="13.89" length="480.00" shape="480.00,508.00 0.00,508.00"/>
        <lane id="E_0_1_4" index="4" speed="13.89" length="480.00" shape="480.00,504.80 0.00,504.80"/>
        <lane id="E_0_1_5" index="5" speed="13.89" length="480.00" shape="480.00,501.60 0.00,501.60"/>
    </edge>
    <edge id="E_0_2" from="0" to="2" priority="1" type="T1">
        <lane id="E_0_2_0" index="0" speed="13.89" length="476.80" shape="523.20,498.40 1000.00,498.40"/>
    </edge>
    <edge id="E_0_3" from="0" to="3" priority="1" type="T3">
        <lane id="E_0_3_0" index="0" speed="13.89" length="480.00" shape="492.00,480.00 492.00,0.00"/>
        <lane id="E_0_3_1" index="1" speed="13.89" length="480.00" shape="495.20,480.00 495.20,0.00"/>
        <lane id="E_0_3_2" index="2" speed="13.89" length="480.00" shape="498.40,480.00 498.40,0.00"/>
    </edge>
    <edge id="E_0_4" from="0" to="4" priority="1" type="T6">
        <lane id="E_0_4_0" index="0" speed="13.89" length="476.80" shape="517.60,523.20 517.60,1000.00"/>
        <lane id="E_0_4_1" index="1" speed="13.89" length="476.80" shape="514.40,523.20 514.40,1000.00"/>
        <lane id="E_0_4_2" index="2" speed="13.89" length="476.80" shape="511.20,523.20 511.20,1000.00"/>
        <lane id="E_0_4_3" index="3" speed="13.89" length="476.80" shape="508.00,523.20 508.00,1000.00"/>
        <lane id="E_0_4_4" index="4" speed="13.89" length="476.80" shape="504.80,523.20 504.80,1000.00"/>
        <lane id="E_0_4_5" index="5" speed="13.89" length="476.80" shape="501.60,523.20 501.60,1000.00"/>
    </edge>
    <edge id="E_1_0" from="1" to="0" priority="1" type="T5">
        <lane id="E_1_0_0" index="0" speed="13.89" length="480.00" shape="0.00,485.60 480.00,485.60"/>
        <lane id="E_1_0_1" index="1" speed="13.89" length="480.00" shape="0.00,488.80 480.00,488.80"/>
        <lane id="E_1_0_2" index="2" speed="13.89" length="480.00" shape="0.00,492.00 480.00,492.00"/>
        <lane id="E_1_0_3" index="3" speed="13.89" length="480.00" shape="0.00,495.20 480.00,495.20"/>
        <lane id="E_1_0_4" index="4" speed="13.89" length="480.00" shape="0.00,498.40 480.00,498.40"/>
    </edge>
    <edge id="E_2_0" from="2" to="0" priority="1" type="T3">
        <lane id="E_2_0_0" index="0" speed="13.89" length="476.80" shape="1000.00,508.00 523.20,508.00"/>
        <lane id="E_2_0_1" index="1" speed="13.89" length="476.80" shape="1000.00,504.80 523.20,504.80"/>
        <lane id="E_2_0_2" index="2" speed="13.89" length="476.80" shape="1000.00,501.60 523.20,501.60"/>
    </edge>
    <edge id="E_3_0" from="3" to="0" priority="1" type="T3">
        <lane id="E_3_0_0" index="0" speed="13.89" length="480.00" shape="508.00,0.00 508.00,480.00"/>
        <lane id="E_3_0_1" index="1" speed="13.89" length="480.00" shape="504.80,0.00 504.80,480.00"/>
        <lane id="E_3_0_2" index="2" speed="13.89" length="480.00" shape="501.60,0.00 501.60,480.00"/>
    </edge>
    <edge id="E_4_0" from="4" to="0" priority="1" type="T5">
        <lane id="E_4_0_0" index="0" speed="13.89" length="476.80" shape="485.60,1000.00 485.60,523.20"/>
        <lane id="E_4_0_1" index="1" speed="13.89" length="476.80" shape="488.80,1000.00 488.80,523.20"/>
        <lane id="E_4_0_2" index="2" speed="13.89" length="476.80" shape="492.00,1000.00 492.00,523.20"/>
        <lane id="E_4_0_3" index="3" speed="13.89" length="476.80" shape="495.20,1000.00 495.20,523.20"/>
        <lane id="E_4_0_4" index="4" speed="13.89" length="476.80" shape="498.40,1000.00 498.40,523.20"/>
    </edge>

    <tlLogic id="0" type="static" programID="0" offset="0">
        <phase duration="23" state="GGGGGGGGGgrrrrrrrrrrrrrrrGGGGGGGggggggrrrrrrrrrr"/>
        <phase duration="3"  state="yyyyyyyyygrrrrrrrrrrrrrrryyyyyyyggggggrrrrrrrrrr"/>
        <phase duration="6"  state="rrrrrrrrrGrrrrrrrrrrrrrrrrrrrrrrGGGGGGrrrrrrrrrr"/>
        <phase duration="3"  state="rrrrrrrrryrrrrrrrrrrrrrrrrrrrrrryyyyyyrrrrrrrrrr"/>
        <phase duration="1"  state="rrrrrrrrrrrrrrrrrrrrrrrrrrrrrrrrrrrrrrrrrrrrrrrr"/>
        <phase duration="23" state="rrrrrrrrrrGGGGGGGGGGGGGGGGrrrrrrrrrrrrrrrrrrrrrr"/>
        <phase duration="3"  state="rrrrrrrrrryyyyyyyyyyyyyyyyrrrrrrrrrrrrrrrrrrrrrr"/>
        <phase duration="1"  state="rrrrrrrrrrrrrrrrrrrrrrrrrrrrrrrrrrrrrrrrrrrrrrrr"/>
        <phase duration="23" state="GGGGGGrrrrrrrrrrrrrrrrrrrrrrrrrrrrrrrrGGGGGGGGGG"/>
        <phase duration="3"  state="yyyyyyrrrrrrrrrrrrrrrrrrrrrrrrrrrrrrrryyyyyyyyyy"/>
        <phase duration="1"  state="rrrrrrrrrrrrrrrrrrrrrrrrrrrrrrrrrrrrrrrrrrrrrrrr"/>
    </tlLogic>

    <junction id="0" type="traffic_light" x="500.00" y="500.00" incLanes="E_4_0_0 E_4_0_1 E_4_0_2 E_4_0_3 E_4_0_4 E_2_0_0 E_2_0_1 E_2_0_2 E_3_0_0 E_3_0_1 E_3_0_2 E_1_0_0 E_1_0_1 E_1_0_2 E_1_0_3 E_1_0_4" intLanes=":0_0_0 :0_0_1 :0_0_2 :0_0_3 :0_0_4 :0_0_5 :0_6_0 :0_6_1 :0_6_2 :0_48_0 :0_10_0 :0_10_1 :0_10_2 :0_10_3 :0_10_4 :0_10_5 :0_16_0 :0_16_1 :0_16_2 :0_16_3 :0_16_4 :0_16_5 :0_22_0 :0_22_1 :0_22_2 :0_25_0 :0_26_0 :0_26_1 :0_26_2 :0_26_3 :0_26_4 :0_26_5 :0_49_0 :0_50_0 :0_51_0 :0_52_0 :0_53_0 :0_54_0 :0_38_0 :0_38_1 :0_38_2 :0_41_0 :0_42_0 :0_42_1 :0_42_2 :0_42_3 :0_42_4 :0_42_5" shape="484.00,523.20 519.20,523.20 519.31,519.04 519.64,515.64 520.20,513.00 520.98,511.11 521.98,509.98 523.20,509.60 523.20,496.80 519.04,496.33 515.64,494.93 513.00,492.60 511.11,489.33 509.98,485.13 509.60,480.00 490.40,480.00 489.24,482.22 487.80,483.00 485.78,483.56 483.18,483.89 480.00,484.00 480.00,519.20 482.22,519.64 483.00,520.20 483.56,520.98 483.89,521.98">
        <request index="0"  response="000000000000000000000000000000000000000000000000" foes="000000000011111100000000001111110000000000000000" cont="0"/>
        <request index="1"  response="000000000000000000000000000000000000000000000000" foes="000000000011111100000000001111110000000000000000" cont="0"/>
        <request index="2"  response="000000000000000000000000000000000000000000000000" foes="000000000011111100000000001111110000000000000000" cont="0"/>
        <request index="3"  response="000000000000000000000000000000000000000000000000" foes="000000000011111100000000001111110000000000000000" cont="0"/>
        <request index="4"  response="000000000000000000000000000000000000000000000000" foes="000000000011111100000000001111110000000000000000" cont="0"/>
        <request index="5"  response="000000000000000000000000000000000000000000000000" foes="000000000011111100000000001111110000000000000000" cont="0"/>
        <request index="6"  response="000000000000000000000000000000000000000000000000" foes="111111111111111100000001111111110000000000000000" cont="0"/>
        <request index="7"  response="000000000000000000000000000000000000000000000000" foes="111111111111111100000001111111110000000000000000" cont="0"/>
        <request index="8"  response="000000000000000000000000000000000000000000000000" foes="111111111111111100000001111111110000000000000000" cont="0"/>
        <request index="9"  response="000000000000000011111110000000000000000000000000" foes="111111100000000011111111111111110000000000000000" cont="1"/>
        <request index="10" response="000000000000000011111100000000000000000000000000" foes="111111000000000011111100000000000000000000000000" cont="0"/>
        <request index="11" response="000000000000000011111100000000000000000000000000" foes="111111000000000011111100000000000000000000000000" cont="0"/>
        <request index="12" response="000000000000000011111100000000000000000000000000" foes="111111000000000011111100000000000000000000000000" cont="0"/>
        <request index="13" response="000000000000000011111100000000000000000000000000" foes="111111000000000011111100000000000000000000000000" cont="0"/>
        <request index="14" response="000000000000000011111100000000000000000000000000" foes="111111000000000011111100000000000000000000000000" cont="0"/>
        <request index="15" response="000000000000000011111100000000000000000000000000" foes="111111000000000011111100000000000000000000000000" cont="0"/>
        <request index="16" response="000000000011111111111100000000000000001111111111" foes="111111000011111111111100000000000000001111111111" cont="0"/>
        <request index="17" response="000000000011111111111100000000000000001111111111" foes="111111000011111111111100000000000000001111111111" cont="0"/>
        <request index="18" response="000000000011111111111100000000000000001111111111" foes="111111000011111111111100000000000000001111111111" cont="0"/>
        <request index="19" response="000000000011111111111100000000000000001111111111" foes="111111000011111111111100000000000000001111111111" cont="0"/>
        <request index="20" response="000000000011111111111100000000000000001111111111" foes="111111000011111111111100000000000000001111111111" cont="0"/>
        <request index="21" response="000000000011111111111100000000000000001111111111" foes="111111000011111111111100000000000000001111111111" cont="0"/>
        <request index="22" response="000000111111111111111100000000000000001111000000" foes="000000111111111111111100000000000000001111000000" cont="0"/>
        <request index="23" response="000000111111111111111100000000000000001111000000" foes="000000111111111111111100000000000000001111000000" cont="0"/>
        <request index="24" response="000000111111111111111100000000000000001111000000" foes="000000111111111111111100000000000000001111000000" cont="0"/>
        <request index="25" response="000000000000000000000000000000000000000000000000" foes="000000100000000000000000000000000000001000000000" cont="0"/>
        <request index="26" response="000000000000000000000000000000000000000000000000" foes="111111100000000000000001111111111111111000000000" cont="0"/>
        <request index="27" response="000000000000000000000000000000000000000000000000" foes="111111100000000000000001111111111111111000000000" cont="0"/>
        <request index="28" response="000000000000000000000000000000000000000000000000" foes="111111100000000000000001111111111111111000000000" cont="0"/>
        <request index="29" response="000000000000000000000000000000000000000000000000" foes="111111100000000000000001111111111111111000000000" cont="0"/>
        <request index="30" response="000000000000000000000000000000000000000000000000" foes="111111100000000000000001111111111111111000000000" cont="0"/>
        <request index="31" response="000000000000000000000000000000000000000000000000" foes="111111100000000000000001111111111111111000000000" cont="0"/>
        <request index="32" response="000000000000000000000000000000000000000111111111" foes="111111100000000000000001111111110000000111111111" cont="1"/>
        <request index="33" response="000000000000000000000000000000000000000111111111" foes="111111100000000000000001111111110000000111111111" cont="1"/>
        <request index="34" response="000000000000000000000000000000000000000111111111" foes="111111100000000000000001111111110000000111111111" cont="1"/>
        <request index="35" response="000000000000000000000000000000000000000111111111" foes="111111100000000000000001111111110000000111111111" cont="1"/>
        <request index="36" response="000000000000000000000000000000000000000111111111" foes="111111100000000000000001111111110000000111111111" cont="1"/>
        <request index="37" response="000000000000000000000000000000000000000111111111" foes="111111100000000000000001111111110000000111111111" cont="1"/>
        <request index="38" response="000000000000000000000000000000000000000111000000" foes="000000000000000000000001110000000000000111000000" cont="0"/>
        <request index="39" response="000000000000000000000000000000000000000111000000" foes="000000000000000000000001110000000000000111000000" cont="0"/>
        <request index="40" response="000000000000000000000000000000000000000111000000" foes="000000000000000000000001110000000000000111000000" cont="0"/>
        <request index="41" response="000000000011111111111110000000000000001111000000" foes="000000000011111111111111110000000000001111000000" cont="0"/>
        <request index="42" response="000000000011111111111100001111111111111111000000" foes="000000000011111111111100001111111111111111000000" cont="0"/>
        <request index="43" response="000000000011111111111100001111111111111111000000" foes="000000000011111111111100001111111111111111000000" cont="0"/>
        <request index="44" response="000000000011111111111100001111111111111111000000" foes="000000000011111111111100001111111111111111000000" cont="0"/>
        <request index="45" response="000000000011111111111100001111111111111111000000" foes="000000000011111111111100001111111111111111000000" cont="0"/>
        <request index="46" response="000000000011111111111100001111111111111111000000" foes="000000000011111111111100001111111111111111000000" cont="0"/>
        <request index="47" response="000000000011111111111100001111111111111111000000" foes="000000000011111111111100001111111111111111000000" cont="0"/>
    </junction>
    <junction id="1" type="dead_end" x="0.00" y="500.00" incLanes="E_0_1_0 E_0_1_1 E_0_1_2 E_0_1_3 E_0_1_4 E_0_1_5" intLanes="" shape="0.00,500.00 0.00,519.20 0.00,500.00"/>
    <junction id="2" type="dead_end" x="1000.00" y="500.00" incLanes="E_0_2_0" intLanes="" shape="1000.00,500.00 1000.00,496.80 1000.00,500.00"/>
    <junction id="3" type="dead_end" x="500.00" y="0.00" incLanes="E_0_3_0 E_0_3_1 E_0_3_2" intLanes="" shape="500.00,0.00 490.40,0.00 500.00,0.00"/>
    <junction id="4" type="dead_end" x="500.00" y="1000.00" incLanes="E_0_4_0 E_0_4_1 E_0_4_2 E_0_4_3 E_0_4_4 E_0_4_5" intLanes="" shape="500.00,1000.00 519.20,1000.00 500.00,1000.00"/>

    <junction id=":0_48_0" type="internal" x="499.84" y="513.09" incLanes=":0_9_0 E_3_0_0 E_3_0_1" intLanes=":0_16_0 :0_16_1 :0_16_2 :0_16_3 :0_16_4 :0_16_5 :0_22_0 :0_22_1 :0_22_2 :0_25_0 :0_26_0 :0_26_1 :0_26_2 :0_26_3 :0_26_4 :0_26_5 :0_41_0 :0_42_0 :0_42_1 :0_42_2 :0_42_3 :0_42_4 :0_42_5"/>
    <junction id=":0_49_0" type="internal" x="499.57" y="498.42" incLanes=":0_32_0 E_4_0_0 E_4_0_1 E_4_0_2 E_4_0_3" intLanes=":0_0_0 :0_0_1 :0_0_2 :0_0_3 :0_0_4 :0_0_5 :0_6_0 :0_6_1 :0_6_2 :0_16_0 :0_16_1 :0_16_2 :0_16_3 :0_16_4 :0_16_5 :0_22_0 :0_22_1 :0_22_2 :0_41_0 :0_42_0 :0_42_1 :0_42_2 :0_42_3 :0_42_4 :0_42_5"/>
    <junction id=":0_50_0" type="internal" x="499.72" y="496.45" incLanes=":0_32_1 E_4_0_0 E_4_0_1 E_4_0_2 E_4_0_3" intLanes=":0_0_0 :0_0_1 :0_0_2 :0_0_3 :0_0_4 :0_0_5 :0_6_0 :0_6_1 :0_6_2 :0_16_0 :0_16_1 :0_16_2 :0_16_3 :0_16_4 :0_16_5 :0_22_0 :0_22_1 :0_22_2 :0_41_0 :0_42_0 :0_42_1 :0_42_2 :0_42_3 :0_42_4 :0_42_5"/>
    <junction id=":0_51_0" type="internal" x="499.87" y="494.57" incLanes=":0_32_2 E_4_0_0 E_4_0_1 E_4_0_2 E_4_0_3" intLanes=":0_0_0 :0_0_1 :0_0_2 :0_0_3 :0_0_4 :0_0_5 :0_6_0 :0_6_1 :0_6_2 :0_16_0 :0_16_1 :0_16_2 :0_16_3 :0_16_4 :0_16_5 :0_22_0 :0_22_1 :0_22_2 :0_41_0 :0_42_0 :0_42_1 :0_42_2 :0_42_3 :0_42_4 :0_42_5"/>
    <junction id=":0_52_0" type="internal" x="500.01" y="492.78" incLanes=":0_32_3 E_4_0_0 E_4_0_1 E_4_0_2 E_4_0_3" intLanes=":0_0_0 :0_0_1 :0_0_2 :0_0_3 :0_0_4 :0_0_5 :0_6_0 :0_6_1 :0_6_2 :0_16_0 :0_16_1 :0_16_2 :0_16_3 :0_16_4 :0_16_5 :0_22_0 :0_22_1 :0_22_2 :0_41_0 :0_42_0 :0_42_1 :0_42_2 :0_42_3 :0_42_4 :0_42_5"/>
    <junction id=":0_53_0" type="internal" x="500.14" y="491.05" incLanes=":0_32_4 E_4_0_0 E_4_0_1 E_4_0_2 E_4_0_3" intLanes=":0_0_0 :0_0_1 :0_0_2 :0_0_3 :0_0_4 :0_0_5 :0_6_0 :0_6_1 :0_6_2 :0_16_0 :0_16_1 :0_16_2 :0_16_3 :0_16_4 :0_16_5 :0_22_0 :0_22_1 :0_22_2 :0_41_0 :0_42_0 :0_42_1 :0_42_2 :0_42_3 :0_42_4 :0_42_5"/>
    <junction id=":0_54_0" type="internal" x="500.25" y="489.45" incLanes=":0_32_5 E_4_0_0 E_4_0_1 E_4_0_2 E_4_0_3" intLanes=":0_0_0 :0_0_1 :0_0_2 :0_0_3 :0_0_4 :0_0_5 :0_6_0 :0_6_1 :0_6_2 :0_16_0 :0_16_1 :0_16_2 :0_16_3 :0_16_4 :0_16_5 :0_22_0 :0_22_1 :0_22_2 :0_41_0 :0_42_0 :0_42_1 :0_42_2 :0_42_3 :0_42_4 :0_42_5"/>

    <connection from="E_1_0" to="E_0_3" fromLane="0" toLane="0" via=":0_38_0" tl="0" linkIndex="38" dir="r" state="o"/>
    <connection from="E_1_0" to="E_0_3" fromLane="0" toLane="1" via=":0_38_1" tl="0" linkIndex="39" dir="r" state="o"/>
    <connection from="E_1_0" to="E_0_3" fromLane="0" toLane="2" via=":0_38_2" tl="0" linkIndex="40" dir="r" state="o"/>
    <connection from="E_1_0" to="E_0_2" fromLane="1" toLane="0" via=":0_41_0" tl="0" linkIndex="41" dir="s" state="o"/>
    <connection from="E_1_0" to="E_0_4" fromLane="2" toLane="0" via=":0_42_0" tl="0" linkIndex="42" dir="l" state="o"/>
    <connection from="E_1_0" to="E_0_4" fromLane="2" toLane="1" via=":0_42_1" tl="0" linkIndex="43" dir="l" state="o"/>
    <connection from="E_1_0" to="E_0_4" fromLane="3" toLane="2" via=":0_42_2" tl="0" linkIndex="44" dir="l" state="o"/>
    <connection from="E_1_0" to="E_0_4" fromLane="3" toLane="3" via=":0_42_3" tl="0" linkIndex="45" dir="l" state="o"/>
    <connection from="E_1_0" to="E_0_4" fromLane="4" toLane="4" via=":0_42_4" tl="0" linkIndex="46" dir="l" state="o"/>
    <connection from="E_1_0" to="E_0_4" fromLane="4" toLane="5" via=":0_42_5" tl="0" linkIndex="47" dir="l" state="o"/>
    <connection from="E_2_0" to="E_0_4" fromLane="0" toLane="0" via=":0_10_0" tl="0" linkIndex="10" dir="r" state="o"/>
    <connection from="E_2_0" to="E_0_4" fromLane="0" toLane="1" via=":0_10_1" tl="0" linkIndex="11" dir="r" state="o"/>
    <connection from="E_2_0" to="E_0_4" fromLane="0" toLane="2" via=":0_10_2" tl="0" linkIndex="12" dir="r" state="o"/>
    <connection from="E_2_0" to="E_0_4" fromLane="0" toLane="3" via=":0_10_3" tl="0" linkIndex="13" dir="r" state="o"/>
    <connection from="E_2_0" to="E_0_4" fromLane="0" toLane="4" via=":0_10_4" tl="0" linkIndex="14" dir="r" state="o"/>
    <connection from="E_2_0" to="E_0_4" fromLane="0" toLane="5" via=":0_10_5" tl="0" linkIndex="15" dir="r" state="o"/>
    <connection from="E_2_0" to="E_0_1" fromLane="1" toLane="0" via=":0_16_0" tl="0" linkIndex="16" dir="s" state="o"/>
    <connection from="E_2_0" to="E_0_1" fromLane="1" toLane="1" via=":0_16_1" tl="0" linkIndex="17" dir="s" state="o"/>
    <connection from="E_2_0" to="E_0_1" fromLane="1" toLane="2" via=":0_16_2" tl="0" linkIndex="18" dir="s" state="o"/>
    <connection from="E_2_0" to="E_0_1" fromLane="1" toLane="3" via=":0_16_3" tl="0" linkIndex="19" dir="s" state="o"/>
    <connection from="E_2_0" to="E_0_1" fromLane="1" toLane="4" via=":0_16_4" tl="0" linkIndex="20" dir="s" state="o"/>
    <connection from="E_2_0" to="E_0_1" fromLane="1" toLane="5" via=":0_16_5" tl="0" linkIndex="21" dir="s" state="o"/>
    <connection from="E_2_0" to="E_0_3" fromLane="2" toLane="0" via=":0_22_0" tl="0" linkIndex="22" dir="l" state="o"/>
    <connection from="E_2_0" to="E_0_3" fromLane="2" toLane="1" via=":0_22_1" tl="0" linkIndex="23" dir="l" state="o"/>
    <connection from="E_2_0" to="E_0_3" fromLane="2" toLane="2" via=":0_22_2" tl="0" linkIndex="24" dir="l" state="o"/>
    <connection from="E_3_0" to="E_0_2" fromLane="0" toLane="0" via=":0_25_0" tl="0" linkIndex="25" dir="r" state="O"/>
    <connection from="E_3_0" to="E_0_4" fromLane="1" toLane="0" via=":0_26_0" tl="0" linkIndex="26" dir="s" state="O"/>
    <connection from="E_3_0" to="E_0_4" fromLane="1" toLane="1" via=":0_26_1" tl="0" linkIndex="27" dir="s" state="O"/>
    <connection from="E_3_0" to="E_0_4" fromLane="1" toLane="2" via=":0_26_2" tl="0" linkIndex="28" dir="s" state="O"/>
    <connection from="E_3_0" to="E_0_4" fromLane="1" toLane="3" via=":0_26_3" tl="0" linkIndex="29" dir="s" state="O"/>
    <connection from="E_3_0" to="E_0_4" fromLane="1" toLane="4" via=":0_26_4" tl="0" linkIndex="30" dir="s" state="O"/>
    <connection from="E_3_0" to="E_0_4" fromLane="1" toLane="5" via=":0_26_5" tl="0" linkIndex="31" dir="s" state="O"/>