<?xml version="1.0" encoding="UTF-8"?>
<routes>
   <vType accel="3.0" decel="6.0" id="CarA" length="5.0" minGap="0" maxSpeed="20.0" sigma="0.5" />
   <route id="route1" edges="E_1_0 E_0_3"/>
   <route id="route2" edges="E_1_0 E_0_2"/>
   <route id="route3" edges="E_1_0 E_0_4"/>
   <route id="route4" edges="E_2_0 E_0_4"/>
   <route id="route5" edges="E_2_0 E_0_1"/>
   <route id="route6" edges="E_2_0 E_0_3"/>
   <route id="route7" edges="E_3_0 E_0_2"/>
   <route id="route8" edges="E_3_0 E_0_4"/>
   <route id="route9" edges="E_3_0 E_0_1"/>
   <route id="route10" edges="E_4_0 E_0_1"/>
   <route id="route11" edges="E_4_0 E_0_3"/>
   <route id="route12" edges="E_4_0 E_0_2"/>
   <vehicle depart="0" id="I0" route="route2" type="CarA"/>
   <vehicle depart="0" id="I1" route="route3" type="CarA"/>
   <vehicle depart="0" id="I2" route="route3" type="CarA"/>
   <vehicle depart="0" id="I3" route="route7" type="CarA"/>
   <vehicle depart="0" id="I4" route="route1" type="CarA"/>
   <vehicle depart="0" id="I5" route="route9" type="CarA"/>
   <vehicle depart="0" id="I6" route="route8" type="CarA"/>
   <vehicle depart="0" id="I7" route="route1" type="CarA"/>
   <vehicle depart="0" id="I8" route="route11" type="CarA"/>
   <vehicle depart="0" id="I9" route="route5" type="CarA"/>
   <vehicle depart="0" id="I10" route="route4" type="CarA"/>
   <vehicle depart="0" id="I11" route="route8" type="CarA"/>
   <vehicle depart="0" id="I12" route="route7" type="CarA"/>
   <vehicle depart="0" id="I13" route="route1" type="CarA"/>
   <vehicle depart="0" id="I14" route="route5" type="CarA"/>
   <vehicle depart="0" id="I15" route="route7" type="CarA"/>
   <vehicle depart="0" id="I16" route="route9" type="CarA"/>
   <vehicle depart="0" id="I17" route="route12" type="CarA"/>
   <vehicle depart="0" id="I18" route="route12" type="CarA"/>
   <vehicle depart="0" id="I19" route="route4" type="CarA"/>
</routes>
