<?xml version="1.0" encoding="UTF-8"?>

<!-- generated on 2023-05-28 23:47:23 by Eclipse SUMO netconvert Version 1.16.0
<configuration xmlns:xsi="http://www.w3.org/2001/XMLSchema-instance" xsi:noNamespaceSchemaLocation="http://sumo.dlr.de/xsd/netconvertConfiguration.xsd">

    <input>
        <node-files value="creators/sumo_files/app.nod.xml"/>
        <edge-files value="creators/sumo_files/app.edg.xml"/>
        <connection-files value="creators/sumo_files/app.con.xml"/>
        <type-files value="creators/sumo_files/app.typ.xml"/>
    </input>

    <output>
        <output-file value="creators/sumo_files/app.net.xml"/>
    </output>

    <junctions>
        <no-turnarounds value="true"/>
    </junctions>

</configuration>
-->

<net version="1.16" junctionCornerDetail="5" limitTurnSpeed="5.50" xmlns:xsi="http://www.w3.org/2001/XMLSchema-instance" xsi:noNamespaceSchemaLocation="http://sumo.dlr.de/xsd/net_file.xsd">

    <location netOffset="500.00,500.00" convBoundary="0.00,0.00,1000.00,1000.00" origBoundary="-500.00,-500.00,500.00,500.00" projParameter="!"/>

    <type id="T1" priority="1" numLanes="1" speed="13.89"/>
    <type id="T2" priority="1" numLanes="2" speed="13.89"/>
    <type id="T3" priority="1" numLanes="3" speed="13.89"/>
    <type id="T4" priority="1" numLanes="4" speed="13.89"/>
    <type id="T5" priority="1" numLanes="5" speed="13.89"/>
    <type id="T6" priority="1" numLanes="6" speed="13.89"/>

    <edge id=":0_0" function="internal">
        <lane id=":0_0_0" index="0" speed="8.10" length="14.57" shape="492.00,513.60 491.65,508.35 490.60,504.60 488.85,502.35 486.40,501.60"/>
    </edge>
    <edge id=":0_1" function="internal">
        <lane id=":0_1_0" index="0" speed="13.89" length="27.42" shape="495.20,513.60 495.70,504.28 496.80,496.74 497.90,490.83 498.40,486.40"/>
    </edge>
    <edge id=":0_2" function="internal">
        <lane id=":0_2_0" index="0" speed="10.36" length="8.26" shape="498.40,513.60 499.35,506.95 500.15,505.62"/>
    </edge>
    <edge id=":0_12" function="internal">
        <lane id=":0_12_0" index="0" speed="10.36" length="16.25" shape="500.15,505.62 502.20,502.20 506.95,499.35 513.60,498.40"/>
    </edge>
    <edge id=":0_3" function="internal">
        <lane id=":0_3_0" index="0" speed="8.10" length="14.57" shape="513.60,508.00 508.35,508.35 504.60,509.40 502.35,511.15 501.60,513.60"/>
    </edge>
    <edge id=":0_4" function="internal">
        <lane id=":0_4_0" index="0" speed="13.89" length="27.42" shape="513.60,504.80 504.28,504.30 496.74,503.20 490.83,502.10 486.40,501.60"/>
    </edge>
    <edge id=":0_5" function="internal">
        <lane id=":0_5_0" index="0" speed="10.36" length="8.26" shape="513.60,501.60 506.95,500.65 505.62,499.85"/>
    </edge>
    <edge id=":0_13" function="internal">
        <lane id=":0_13_0" index="0" speed="10.36" length="16.25" shape="505.62,499.85 502.20,497.80 499.35,493.05 498.40,486.40"/>
    </edge>
    <edge id=":0_6" function="internal">
        <lane id=":0_6_0" index="0" speed="8.10" length="14.57" shape="508.00,486.40 508.35,491.65 509.40,495.40 511.15,497.65 513.60,498.40"/>
    </edge>
    <edge id=":0_7" function="internal">
        <lane id=":0_7_0" index="0" speed="13.89" length="27.42" shape="504.80,486.40 504.30,495.72 503.20,503.26 502.10,509.17 501.60,513.60"/>
    </edge>
    <edge id=":0_8" function="internal">
        <lane id=":0_8_0" index="0" speed="10.36" length="8.26" shape="501.60,486.40 500.65,493.05 499.85,494.38"/>
    </edge>
    <edge id=":0_14" function="internal">
        <lane id=":0_14_0" index="0" speed="10.36" length="16.25" shape="499.85,494.38 497.80,497.80 493.05,500.65 486.40,501.60"/>
    </edge>
    <edge id=":0_9" function="internal">
        <lane id=":0_9_0" index="0" speed="8.10" length="14.57" shape="486.40,492.00 491.65,491.65 495.40,490.60 497.65,488.85 498.40,486.40"/>
    </edge>
    <edge id=":0_10" function="internal">
        <lane id=":0_10_0" index="0" speed="13.89" length="27.42" shape="486.40,495.20 495.72,495.70 503.26,496.80 509.17,497.90 513.60,498.40"/>
    </edge>
    <edge id=":0_11" function="internal">
        <lane id=":0_11_0" index="0" speed="10.36" length="8.26" shape="486.40,498.40 493.05,499.35 494.38,500.15"/>
    </edge>
    <edge id=":0_15" function="internal">
        <lane id=":0_15_0" index="0" speed="10.36" length="16.25" shape="494.38,500.15 497.80,502.20 500.65,506.95 501.60,513.60"/>
    </edge>

    <edge id="E_0_1" from="0" to="1" priority="1" type="T1">
        <lane id="E_0_1_0" index="0" speed="13.89" length="486.40" shape="486.40,501.60 0.00,501.60"/>
    </edge>
    <edge id="E_0_2" from="0" to="2" priority="1" type="T1">
        <lane id="E_0_2_0" index="0" speed="13.89" length="486.40" shape="513.60,498.40 1000.00,498.40"/>
    </edge>
    <edge id="E_0_3" from="0" to="3" priority="1" type="T1">
        <lane id="E_0_3_0" index="0" speed="13.89" length="486.40" shape="498.40,486.40 498.40,0.00"/>
    </edge>
    <edge id="E_0_4" from="0" to="4" priority="1" type="T1">
        <lane id="E_0_4_0" index="0" speed="13.89" length="486.40" shape="501.60,513.60 501.60,1000.00"/>
    </edge>
    <edge id="E_1_0" from="1" to="0" priority="1" type="T3">
        <lane id="E_1_0_0" index="0" speed="13.89" length="486.40" shape="0.00,492.00 486.40,492.00"/>
        <lane id="E_1_0_1" index="1" speed="13.89" length="486.40" shape="0.00,495.20 486.40,495.20"/>
        <lane id="E_1_0_2" index="2" speed="13.89" length="486.40" shape="0.00,498.40 486.40,498.40"/>
    </edge>
    <edge id="E_2_0" from="2" to="0" priority="1" type="T3">
        <lane id="E_2_0_0" index="0" speed="13.89" length="486.40" shape="1000.00,508.00 513.60,508.00"/>
        <lane id="E_2_0_1" index="1" speed="13.89" length="486.40" shape="1000.00,504.80 513.60,504.80"/>
        <lane id="E_2_0_2" index="2" speed="13.89" length="486.40" shape="1000.00,501.60 513.60,501.60"/>
    </edge>
    <edge id="E_3_0" from="3" to="0" priority="1" type="T3">
        <lane id="E_3_0_0" index="0" speed="13.89" length="486.40" shape="508.00,0.00 508.00,486.40"/>
        <lane id="E_3_0_1" index="1" speed="13.89" length="486.40" shape="504.80,0.00 504.80,486.40"/>
        <lane id="E_3_0_2" index="2" speed="13.89" length="486.40" shape="501.60,0.00 501.60,486.40"/>
    </edge>
    <edge id="E_4_0" from="4" to="0" priority="1" type="T3">
        <lane id="E_4_0_0" index="0" speed="13.89" length="486.40" shape="492.00,1000.00 492.00,513.60"/>
        <lane id="E_4_0_1" index="1" speed="13.89" length="486.40" shape="495.20,1000.00 495.20,513.60"/>
        <lane id="E_4_0_2" index="2" speed="13.89" length="486.40" shape="498.40,1000.00 498.40,513.60"/>
    </edge>

    <tlLogic id="0" type="static" programID="0" offset="0">
        <phase duration="33" state="GGgrrrGGgrrr"/>
        <phase duration="3"  state="yygrrryygrrr"/>
        <phase duration="6"  state="rrGrrrrrGrrr"/>
        <phase duration="3"  state="rryrrrrryrrr"/>
        <phase duration="33" state="rrrGGgrrrGGg"/>
        <phase duration="3"  state="rrryygrrryyg"/>
        <phase duration="6"  state="rrrrrGrrrrrG"/>
        <phase duration="3"  state="rrrrryrrrrry"/>
    </tlLogic>

    <junction id="0" type="traffic_light" x="500.00" y="500.00" incLanes="E_4_0_0 E_4_0_1 E_4_0_2 E_2_0_0 E_2_0_1 E_2_0_2 E_3_0_0 E_3_0_1 E_3_0_2 E_1_0_0 E_1_0_1 E_1_0_2" intLanes=":0_0_0 :0_1_0 :0_12_0 :0_3_0 :0_4_0 :0_13_0 :0_6_0 :0_7_0 :0_14_0 :0_9_0 :0_10_0 :0_15_0" shape="490.40,513.60 503.20,513.60 504.36,511.38 505.80,510.60 507.82,510.04 510.42,509.71 513.60,509.60 513.60,496.80 511.38,495.64 510.60,494.20 510.04,492.18 509.71,489.58 509.60,486.40 496.80,486.40 495.64,488.62 494.20,489.40 492.18,489.96 489.58,490.29 486.40,490.40 486.40,503.20 488.62,504.36 489.40,505.80 489.96,507.82 490.29,510.42">
        <request index="0"  response="000000000000" foes="000100010000" cont="0"/>
        <request index="1"  response="100000100000" foes="111100110000" cont="0"/>
        <request index="2"  response="100011100000" foes="110011110000" cont="1"/>
        <request index="3"  response="000010000000" foes="100010000000" cont="0"/>
        <request index="4"  response="000110000111" foes="100110000111" cont="0"/>
        <request index="5"  response="011110000110" foes="011110000110" cont="1"/>
        <request index="6"  response="000000000000" foes="010000000100" cont="0"/>
        <request index="7"  response="100000100000" foes="110000111100" cont="0"/>
        <request index="8"  response="100000100011" foes="110000110011" cont="1"/>
        <request index="9"  response="000000000010" foes="000000100010" cont="0"/>
        <request index="10" response="000111000110" foes="000111100110" cont="0"/>
        <request index="11" response="000110011110" foes="000110011110" cont="1"/>
    </junction>
    <junction id="1" type="dead_end" x="0.00" y="500.00" incLanes="E_0_1_0" intLanes="" shape="0.00,500.00 0.00,503.20 0.00,500.00"/>
    <junction id="2" type="dead_end" x="1000.00" y="500.00" incLanes="E_0_2_0" intLanes="" shape="1000.00,500.00 1000.00,496.80 1000.00,500.00"/>
    <junction id="3" type="dead_end" x="500.00" y="0.00" incLanes="E_0_3_0" intLanes="" shape="500.00,0.00 496.80,0.00 500.00,0.00"/>
    <junction id="4" type="dead_end" x="500.00" y="1000.00" incLanes="E_0_4_0" intLanes="" shape="500.00,1000.00 503.20,1000.00 500.00,1000.00"/>

    <junction id=":0_12_0" type="internal" x="500.15" y="505.62" incLanes=":0_2_0 E_3_0_0 E_3_0_1" intLanes=":0_4_0 :0_5_0 :0_6_0 :0_7_0 :0_10_0 :0_11_0"/>
    <junction id=":0_13_0" type="internal" x="505.62" y="499.85" incLanes=":0_5_0 E_1_0_0 E_1_0_1" intLanes=":0_1_0 :0_2_0 :0_7_0 :0_8_0 :0_9_0 :0_10_0"/>
    <junction id=":0_14_0" type="internal" x="499.85" y="494.38" incLanes=":0_8_0 E_4_0_0 E_4_0_1" intLanes=":0_0_0 :0_1_0 :0_4_0 :0_5_0 :0_10_0 :0_11_0"/>
    <junction id=":0_15_0" type="internal" x="494.38" y="500.15" incLanes=":0_11_0 E_2_0_0 E_2_0_1" intLanes=":0_1_0 :0_2_0 :0_3_0 :0_4_0 :0_7_0 :0_8_0"/>

    <connection from="E_1_0" to="E_0_3" fromLane="0" toLane="0" via=":0_9_0" tl="0" linkIndex="9" dir="r" state="o"/>
    <connection from="E_1_0" to="E_0_2" fromLane="1" toLane="0" via=":0_10_0" tl="0" linkIndex="10" dir="s" state="o"/>
    <connection from="E_1_0" to="E_0_4" fromLane="2" toLane="0" via=":0_11_0" tl="0" linkIndex="11" dir="l" state="o"/>
    <connection from="E_2_0" to="E_0_4" fromLane="0" toLane="0" via=":0_3_0" tl="0" linkIndex="3" dir="r" state="o"/>
    <connection from="E_2_0" to="E_0_1" fromLane="1" toLane="0" via=":0_4_0" tl="0" linkIndex="4" dir="s" state="o"/>
    <connection from="E_2_0" to="E_0_3" fromLane="2" toLane="0" via=":0_5_0" tl="0" linkIndex="5" dir="l" state="o"/>
    <connection from="E_3_0" to="E_0_2" fromLane="0" toLane="0" via=":0_6_0" tl="0" linkIndex="6" dir="r" state="O"/>
    <connection from="E_3_0" to="E_0_4" fromLane="1" toLane="0" via=":0_7_0" tl="0" linkIndex="7" dir="s" state="O"/>
    <connection from="E_3_0" to="E_0_1" fromLane="2" toLane="0" via=":0_8_0" tl="0" linkIndex="8" dir="l" state="o"/>
    <connection from="E_4_0" to="E_0_1" fromLane="0" toLane="0" via=":0_0_0" tl="0" linkIndex="0" dir="r" state="O"/>
    <connection from="E_4_0" to="E_0_3" fromLane="1" toLane="0" via=":0_1_0" tl="0" linkIndex="1" dir="s" state="O"/>
    <connection from="E_4_0" to="E_0_2" fromLane="2" toLane="0" via=":0_2_0" tl="0" linkIndex="2" dir="l" state="o"/>

    <connection from=":0_0" to="E_0_1" fromLane="0" toLane="0" dir="r" state="M"/>
    <connection from=":0_1" to="E_0_3" fromLane="0" toLane="0" dir="s" state="M"/>
    <connection from=":0_2" to="E_0_2" fromLane="0" toLane="0" via=":0_12_0" dir="l" state="m"/>
    <connection from=":0_12" to="E_0_2" fromLane="0" toLane="0" dir="l" state="M"/>
    <connection from=":0_3" to="E_0_4" fromLane="0" toLane="0" dir="r" state="M"/>
    <connection from=":0_4" to="E_0_1" fromLane="0" toLane="0" dir="s" state="M"/>
    <connection from=":0_5" to="E_0_3" fromLane="0" toLane="0" via=":0_13_0" dir="l" state="m"/>
    <connection from=":0_13" to="E_0_3" fromLane="0" toLane="0" dir="l" state="M"/>
    <connection from=":0_6" to="E_0_2" fromLane="0" toLane="0" dir="r" state="M"/>
    <connection from=":0_7" to="E_0_4" fromLane="0" toLane="0" dir="s" state="M"/>
    <connection from=":0_8" to="E_0_1" fromLane="0" toLane="0" via=":0_14_0" dir="l" state="m"/>
    <connection from=":0_14" to="E_0_1" fromLane="0" toLane="0" dir="l" state="M"/>
    <connection from=":0_9" to="E_0_3" fromLane="0" toLane="0" dir="r" state="M"/>
    <connection from=":0_10" to="E_0_2" fromLane="0" toLane="0" dir="s" state="M"/>
    <connection from=":0_11" to="E_0_4" fromLane="0" toLane="0" via=":0_15_0" dir="l" state="m"/>
    <connection from=":0_15" to="E_0_4" fromLane="0" toLane="0" dir="l" state="M"/>

</net>
