<?xml version="1.0" encoding="UTF-8"?>

<!-- generated on 2023-05-21 01:06:18 by Eclipse SUMO netconvert Version 1.16.0
<configuration xmlns:xsi="http://www.w3.org/2001/XMLSchema-instance" xsi:noNamespaceSchemaLocation="http://sumo.dlr.de/xsd/netconvertConfiguration.xsd">

    <input>
        <node-files value="creators/sumo_files/app.nod.xml"/>
        <edge-files value="creators/sumo_files/app.edg.xml"/>
        <connection-files value="creators/sumo_files/app.con.xml"/>
        <type-files value="creators/sumo_files/app.typ.xml"/>
    </input>

    <output>
        <output-file value="creators/sumo_files/app.net.xml"/>
    </output>

    <junctions>
        <no-turnarounds value="true"/>
    </junctions>

</configuration>
-->

<net version="1.16" junctionCornerDetail="5" limitTurnSpeed="5.50" xmlns:xsi="http://www.w3.org/2001/XMLSchema-instance" xsi:noNamespaceSchemaLocation="http://sumo.dlr.de/xsd/net_file.xsd">

    <location netOffset="500.00,500.00" convBoundary="0.00,0.00,1000.00,1000.00" origBoundary="-500.00,-500.00,500.00,500.00" projParameter="!"/>

    <type id="T1" priority="1" numLanes="1" speed="13.89"/>
    <type id="T2" priority="1" numLanes="2" speed="13.89"/>
    <type id="T3" priority="1" numLanes="3" speed="13.89"/>
    <type id="T4" priority="1" numLanes="4" speed="13.89"/>
    <type id="T5" priority="1" numLanes="5" speed="13.89"/>
    <type id="T6" priority="1" numLanes="6" speed="13.89"/>

    <edge id=":0_0" function="internal">
        <lane id=":0_0_0" index="0" speed="8.83" length="17.50" shape="492.00,516.80 491.65,510.15 490.60,505.40 488.85,502.55 486.40,501.60"/>
    </edge>
    <edge id=":0_1" function="internal">
        <lane id=":0_1_0" index="0" speed="13.89" length="36.89" shape="495.20,516.80 492.00,480.00"/>
        <lane id=":0_1_1" index="1" speed="13.89" length="36.89" shape="495.20,516.80 495.20,480.00"/>
        <lane id=":0_1_2" index="2" speed="13.89" length="36.89" shape="495.20,516.80 498.40,480.00"/>
    </edge>
    <edge id=":0_4" function="internal">
        <lane id=":0_4_0" index="0" speed="13.22" length="16.47" shape="498.40,516.80 499.55,503.15 500.48,500.53"/>
        <lane id=":0_4_1" index="1" speed="12.76" length="14.30" shape="498.40,516.80 499.55,504.55 500.28,502.69"/>
        <lane id=":0_4_2" index="2" speed="12.30" length="12.26" shape="498.40,516.80 499.55,505.95 500.10,504.72"/>
        <lane id=":0_4_3" index="3" speed="11.84" length="10.34" shape="498.40,516.80 499.55,507.35 499.92,506.62"/>
        <lane id=":0_4_4" index="4" speed="11.36" length="8.52" shape="498.40,516.80 499.55,508.75 499.75,508.41"/>
    </edge>
    <edge id=":0_39" function="internal">
        <lane id=":0_39_0" index="0" speed="13.22" length="24.05" shape="500.48,500.53 503.00,493.40 508.75,487.55 516.80,485.60"/>
    </edge>
    <edge id=":0_40" function="internal">
        <lane id=":0_40_0" index="0" speed="12.76" length="23.44" shape="500.28,502.69 503.00,495.80 508.75,490.55 516.80,488.80"/>
    </edge>
    <edge id=":0_41" function="internal">
        <lane id=":0_41_0" index="0" speed="12.30" length="22.73" shape="500.10,504.72 503.00,498.20 508.75,493.55 516.80,492.00"/>
    </edge>
    <edge id=":0_42" function="internal">
        <lane id=":0_42_0" index="0" speed="11.84" length="21.96" shape="499.92,506.62 503.00,500.60 508.75,496.55 516.80,495.20"/>
    </edge>
    <edge id=":0_43" function="internal">
        <lane id=":0_43_0" index="0" speed="11.36" length="21.15" shape="499.75,508.41 503.00,503.00 508.75,499.55 516.80,498.40"/>
    </edge>
    <edge id=":0_9" function="internal">
        <lane id=":0_9_0" index="0" speed="6.51" length="9.03" shape="516.80,511.20 514.35,511.55 512.60,512.60 511.55,514.35 511.20,516.80"/>
        <lane id=":0_9_1" index="1" speed="7.33" length="11.73" shape="516.80,511.20 512.95,511.55 510.20,512.60 508.55,514.35 508.00,516.80"/>
        <lane id=":0_9_2" index="2" speed="8.67" length="16.85" shape="516.80,508.00 511.55,508.55 507.80,510.20 505.55,512.95 504.80,516.80"/>
        <lane id=":0_9_3" index="3" speed="9.32" length="19.63" shape="516.80,508.00 510.15,508.55 505.40,510.20 502.55,512.95 501.60,516.80"/>
    </edge>
    <edge id=":0_13" function="internal">
        <lane id=":0_13_0" index="0" speed="13.89" length="30.60" shape="516.80,504.80 506.31,504.30 497.74,503.20 491.11,502.10 486.40,501.60"/>
    </edge>
    <edge id=":0_14" function="internal">
        <lane id=":0_14_0" index="0" speed="12.72" length="11.18" shape="516.80,501.60 505.95,500.25 505.73,500.14"/>
        <lane id=":0_14_1" index="1" speed="12.28" length="8.07" shape="516.80,501.60 508.81,500.46"/>
        <lane id=":0_14_2" index="2" speed="11.84" length="6.33" shape="516.80,501.60 510.56,500.55"/>
    </edge>
    <edge id=":0_44" function="internal">
        <lane id=":0_44_0" index="0" speed="12.72" length="26.27" shape="505.73,500.14 498.20,496.20 493.55,489.45 492.00,480.00"/>
    </edge>
    <edge id=":0_45" function="internal">
        <lane id=":0_45_0" index="0" speed="12.28" length="26.77" shape="508.81,500.46 507.35,500.25 500.60,496.20 496.55,489.45 495.20,480.00"/>
    </edge>
    <edge id=":0_46" function="internal">
        <lane id=":0_46_0" index="0" speed="11.84" length="25.97" shape="510.56,500.55 508.75,500.25 503.00,496.20 499.55,489.45 498.40,480.00"/>
    </edge>
    <edge id=":0_17" function="internal">
        <lane id=":0_17_0" index="0" speed="7.33" length="11.73" shape="508.00,480.00 508.55,482.45 510.20,484.20 512.95,485.25 516.80,485.60"/>
        <lane id=":0_17_1" index="1" speed="8.00" length="14.19" shape="508.00,480.00 508.55,483.85 510.20,486.60 512.95,488.25 516.80,488.80"/>
        <lane id=":0_17_2" index="2" speed="8.67" length="16.85" shape="508.00,480.00 508.55,485.25 510.20,489.00 512.95,491.25 516.80,492.00"/>
        <lane id=":0_17_3" index="3" speed="9.32" length="19.63" shape="508.00,480.00 508.55,486.65 510.20,491.40 512.95,494.25 516.80,495.20"/>
        <lane id=":0_17_4" index="4" speed="9.94" length="22.48" shape="508.00,480.00 508.55,488.05 510.20,493.80 512.95,497.25 516.80,498.40"/>
    </edge>
    <edge id=":0_22" function="internal">
        <lane id=":0_22_0" index="0" speed="13.89" length="37.04" shape="504.80,480.00 505.80,489.45 508.00,497.02 510.20,505.28 511.20,516.80"/>
        <lane id=":0_22_1" index="1" speed="13.89" length="37.04" shape="504.80,480.00 508.00,516.80"/>
        <lane id=":0_22_2" index="2" speed="13.89" length="37.04" shape="504.80,480.00 504.80,516.80"/>
        <lane id=":0_22_3" index="3" speed="13.89" length="37.04" shape="504.80,480.00 501.60,516.80"/>
    </edge>
    <edge id=":0_26" function="internal">
        <lane id=":0_26_0" index="0" speed="11.39" length="11.19" shape="501.60,480.00 500.65,489.45 499.99,491.01"/>
    </edge>
    <edge id=":0_47" function="internal">
        <lane id=":0_47_0" index="0" speed="11.39" length="18.66" shape="499.99,491.01 497.80,496.20 493.05,500.25 486.40,501.60"/>
    </edge>
    <edge id=":0_27" function="internal">
        <lane id=":0_27_0" index="0" speed="7.33" length="11.73" shape="486.40,488.80 488.85,488.25 490.60,486.60 491.65,483.85 492.00,480.00"/>
        <lane id=":0_27_1" index="1" speed="8.00" length="14.19" shape="486.40,488.80 490.25,488.25 493.00,486.60 494.65,483.85 495.20,480.00"/>
        <lane id=":0_27_2" index="2" speed="8.67" length="16.85" shape="486.40,488.80 491.65,488.25 495.40,486.60 497.65,483.85 498.40,480.00"/>
    </edge>
    <edge id=":0_30" function="internal">
        <lane id=":0_30_0" index="0" speed="13.89" length="30.67" shape="486.40,492.00 495.52,491.00 501.60,488.80 507.68,486.60 516.80,485.60"/>
        <lane id=":0_30_1" index="1" speed="13.89" length="30.67" shape="486.40,492.00 495.45,491.50 501.60,490.40 507.75,489.30 516.80,488.80"/>
        <lane id=":0_30_2" index="2" speed="13.89" length="30.67" shape="486.40,492.00 516.80,492.00"/>
        <lane id=":0_30_3" index="3" speed="13.89" length="30.67" shape="486.40,495.20 516.80,495.20"/>
        <lane id=":0_30_4" index="4" speed="13.89" length="30.67" shape="486.40,495.20 495.45,495.70 501.60,496.80 507.75,497.90 516.80,498.40"/>
    </edge>
    <edge id=":0_35" function="internal">
        <lane id=":0_35_0" index="0" speed="12.30" length="14.44" shape="486.40,498.40 497.25,499.55 500.48,500.99"/>
        <lane id=":0_35_1" index="1" speed="11.84" length="11.95" shape="486.40,498.40 495.85,499.55 498.01,500.66"/>
        <lane id=":0_35_2" index="2" speed="11.36" length="9.47" shape="486.40,498.40 494.45,499.55 495.60,500.24"/>
        <lane id=":0_35_3" index="3" speed="10.88" length="7.29" shape="486.40,498.40 493.05,499.55 493.49,499.87"/>
    </edge>
    <edge id=":0_48" function="internal">
        <lane id=":0_48_0" index="0" speed="12.30" length="20.54" shape="500.48,500.99 505.00,503.00 509.65,508.75 511.20,516.80"/>
    </edge>
    <edge id=":0_49" function="internal">
        <lane id=":0_49_0" index="0" speed="11.84" length="20.35" shape="498.01,500.66 502.60,503.00 506.65,508.75 508.00,516.80"/>
    </edge>
    <edge id=":0_50" function="internal">
        <lane id=":0_50_0" index="0" speed="11.36" length="20.20" shape="495.60,500.24 500.20,503.00 503.65,508.75 504.80,516.80"/>
    </edge>
    <edge id=":0_51" function="internal">
        <lane id=":0_51_0" index="0" speed="10.88" length="19.86" shape="493.49,499.87 497.80,503.00 500.65,508.75 501.60,516.80"/>
    </edge>

    <edge id="E_0_1" from="0" to="1" priority="1" type="T1">
        <lane id="E_0_1_0" index="0" speed="13.89" length="486.40" shape="486.40,501.60 0.00,501.60"/>
    </edge>
    <edge id="E_0_2" from="0" to="2" priority="1" type="T5">
        <lane id="E_0_2_0" index="0" speed="13.89" length="483.20" shape="516.80,485.60 1000.00,485.60"/>
        <lane id="E_0_2_1" index="1" speed="13.89" length="483.20" shape="516.80,488.80 1000.00,488.80"/>
        <lane id="E_0_2_2" index="2" speed="13.89" length="483.20" shape="516.80,492.00 1000.00,492.00"/>
        <lane id="E_0_2_3" index="3" speed="13.89" length="483.20" shape="516.80,495.20 1000.00,495.20"/>
        <lane id="E_0_2_4" index="4" speed="13.89" length="483.20" shape="516.80,498.40 1000.00,498.40"/>
    </edge>
    <edge id="E_0_3" from="0" to="3" priority="1" type="T3">
        <lane id="E_0_3_0" index="0" speed="13.89" length="480.00" shape="492.00,480.00 492.00,0.00"/>
        <lane id="E_0_3_1" index="1" speed="13.89" length="480.00" shape="495.20,480.00 495.20,0.00"/>
        <lane id="E_0_3_2" index="2" speed="13.89" length="480.00" shape="498.40,480.00 498.40,0.00"/>
    </edge>
    <edge id="E_0_4" from="0" to="4" priority="1" type="T4">
        <lane id="E_0_4_0" index="0" speed="13.89" length="483.20" shape="511.20,516.80 511.20,1000.00"/>
        <lane id="E_0_4_1" index="1" speed="13.89" length="483.20" shape="508.00,516.80 508.00,1000.00"/>
        <lane id="E_0_4_2" index="2" speed="13.89" length="483.20" shape="504.80,516.80 504.80,1000.00"/>
        <lane id="E_0_4_3" index="3" speed="13.89" length="483.20" shape="501.60,516.80 501.60,1000.00"/>
    </edge>
    <edge id="E_1_0" from="1" to="0" priority="1" type="T4">
        <lane id="E_1_0_0" index="0" speed="13.89" length="486.40" shape="0.00,488.80 486.40,488.80"/>
        <lane id="E_1_0_1" index="1" speed="13.89" length="486.40" shape="0.00,492.00 486.40,492.00"/>
        <lane id="E_1_0_2" index="2" speed="13.89" length="486.40" shape="0.00,495.20 486.40,495.20"/>
        <lane id="E_1_0_3" index="3" speed="13.89" length="486.40" shape="0.00,498.40 486.40,498.40"/>
    </edge>
    <edge id="E_2_0" from="2" to="0" priority="1" type="T4">
        <lane id="E_2_0_0" index="0" speed="13.89" length="483.20" shape="1000.00,511.20 516.80,511.20"/>
        <lane id="E_2_0_1" index="1" speed="13.89" length="483.20" shape="1000.00,508.00 516.80,508.00"/>
        <lane id="E_2_0_2" index="2" speed="13.89" length="483.20" shape="1000.00,504.80 516.80,504.80"/>
        <lane id="E_2_0_3" index="3" speed="13.89" length="483.20" shape="1000.00,501.60 516.80,501.60"/>
    </edge>
    <edge id="E_3_0" from="3" to="0" priority="1" type="T3">
        <lane id="E_3_0_0" index="0" speed="13.89" length="480.00" shape="508.00,0.00 508.00,480.00"/>
        <lane id="E_3_0_1" index="1" speed="13.89" length="480.00" shape="504.80,0.00 504.80,480.00"/>
        <lane id="E_3_0_2" index="2" speed="13.89" length="480.00" shape="501.60,0.00 501.60,480.00"/>
    </edge>
    <edge id="E_4_0" from="4" to="0" priority="1" type="T3">
        <lane id="E_4_0_0" index="0" speed="13.89" length="483.20" shape="492.00,1000.00 492.00,516.80"/>
        <lane id="E_4_0_1" index="1" speed="13.89" length="483.20" shape="495.20,1000.00 495.20,516.80"/>
        <lane id="E_4_0_2" index="2" speed="13.89" length="483.20" shape="498.40,1000.00 498.40,516.80"/>
    </edge>

    <tlLogic id="0" type="static" programID="0" offset="0">
        <phase duration="33" state="rrrrrrrrrGGGGGgggrrrrrrrrrrGGGGGGGGgggg"/>
        <phase duration="3"  state="rrrrrrrrryyyyygggrrrrrrrrrryyyyyyyygggg"/>
        <phase duration="6"  state="rrrrrrrrrrrrrrGGGrrrrrrrrrrrrrrrrrrGGGG"/>
        <phase duration="3"  state="rrrrrrrrrrrrrryyyrrrrrrrrrrrrrrrrrryyyy"/>
        <phase duration="32" state="GGGGgggggrrrrrrrrGGGGGGGGGgrrrrrrrrrrrr"/>
        <phase duration="3"  state="yyyygggggrrrrrrrryyyyyyyyygrrrrrrrrrrrr"/>
        <phase duration="6"  state="rrrrGGGGGrrrrrrrrrrrrrrrrrGrrrrrrrrrrrr"/>
        <phase duration="3"  state="rrrryyyyyrrrrrrrrrrrrrrrrryrrrrrrrrrrrr"/>
        <phase duration="1"  state="rrrrrrrrrrrrrrrrrrrrrrrrrrrrrrrrrrrrrrr"/>
    </tlLogic>

    <junction id="0" type="traffic_light" x="500.00" y="500.00" incLanes="E_4_0_0 E_4_0_1 E_4_0_2 E_2_0_0 E_2_0_1 E_2_0_2 E_2_0_3 E_3_0_0 E_3_0_1 E_3_0_2 E_1_0_0 E_1_0_1 E_1_0_2 E_1_0_3" intLanes=":0_0_0 :0_1_0 :0_1_1 :0_1_2 :0_39_0 :0_40_0 :0_41_0 :0_42_0 :0_43_0 :0_9_0 :0_9_1 :0_9_2 :0_9_3 :0_13_0 :0_44_0 :0_45_0 :0_46_0 :0_17_0 :0_17_1 :0_17_2 :0_17_3 :0_17_4 :0_22_0 :0_22_1 :0_22_2 :0_22_3 :0_47_0 :0_27_0 :0_27_1 :0_27_2 :0_30_0 :0_30_1 :0_30_2 :0_30_3 :0_30_4 :0_48_0 :0_49_0 :0_50_0 :0_51_0" shape="490.40,516.80 512.80,516.80 513.24,514.58 513.80,513.80 514.58,513.24 515.58,512.91 516.80,512.80 516.80,484.00 514.60,483.89 512.80,483.56 511.40,483.00 510.40,482.22 509.80,481.22 509.60,480.00 490.40,480.00 490.29,482.20 489.96,484.00 489.40,485.40 488.62,486.40 487.62,487.00 486.40,487.20 486.40,503.20 488.62,504.71 489.40,506.60 489.96,509.24 490.29,512.64">
        <request index="0"  response="000000000000000000000000010000000000000" foes="000000000000100000000000010000000000000" cont="0"/>
        <request index="1"  response="111111111111000000000011110000000000000" foes="111111111111100000000011110000000000000" cont="0"/>
        <request index="2"  response="111111111111000000000011110000000000000" foes="111111111111100000000011110000000000000" cont="0"/>
        <request index="3"  response="111111111111000000000011110000000000000" foes="111111111111100000000011110000000000000" cont="0"/>
        <request index="4"  response="111111111000011111111111110000000000000" foes="111111111000011111111111110000000000000" cont="1"/>
        <request index="5"  response="111111111000011111111111110000000000000" foes="111111111000011111111111110000000000000" cont="1"/>
        <request index="6"  response="111111111000011111111111110000000000000" foes="111111111000011111111111110000000000000" cont="1"/>
        <request index="7"  response="111111111000011111111111110000000000000" foes="111111111000011111111111110000000000000" cont="1"/>
        <request index="8"  response="111111111000011111111111110000000000000" foes="111111111000011111111111110000000000000" cont="1"/>
        <request index="9"  response="000000000000000000000000000000000000000" foes="111100000000011110000000000000000000000" cont="0"/>
        <request index="10" response="000000000000000000000000000000000000000" foes="111100000000011110000000000000000000000" cont="0"/>
        <request index="11" response="000000000000000000000000000000000000000" foes="111100000000011110000000000000000000000" cont="0"/>
        <request index="12" response="000000000000000000000000000000000000000" foes="111100000000011110000000000000000000000" cont="0"/>
        <request index="13" response="000000000000100000000000000000111110000" foes="111100000000111110000000000000111111111" cont="0"/>
        <request index="14" response="000011111111100000000000000000111110000" foes="000011111111111110000000000000111111110" cont="1"/>
        <request index="15" response="000011111111100000000000000000111110000" foes="000011111111111110000000000000111111110" cont="1"/>
        <request index="16" response="000011111111100000000000000000111110000" foes="000011111111111110000000000000111111110" cont="1"/>
        <request index="17" response="000011111000000000000000000000000000000" foes="000011111000000000000000000000111110000" cont="0"/>
        <request index="18" response="000011111000000000000000000000000000000" foes="000011111000000000000000000000111110000" cont="0"/>
        <request index="19" response="000011111000000000000000000000000000000" foes="000011111000000000000000000000111110000" cont="0"/>
        <request index="20" response="000011111000000000000000000000000000000" foes="000011111000000000000000000000111110000" cont="0"/>
        <request index="21" response="000011111000000000000000000000000000000" foes="000011111000000000000000000000111110000" cont="0"/>
        <request index="22" response="111111111000000000000011111111000000000" foes="111111111000000000000011111111111110000" cont="0"/>
        <request index="23" response="111111111000000000000011111111000000000" foes="111111111000000000000011111111111110000" cont="0"/>
        <request index="24" response="111111111000000000000011111111000000000" foes="111111111000000000000011111111111110000" cont="0"/>
        <request index="25" response="111111111000000000000011111111000000000" foes="111111111000000000000011111111111110000" cont="0"/>
        <request index="26" response="111111111000000000000011110000000001111" foes="111111111000000000000011110000000001111" cont="1"/>
        <request index="27" response="000000000000000000000000000000000000000" foes="000000000000000000000011100000000001110" cont="0"/>
        <request index="28" response="000000000000000000000000000000000000000" foes="000000000000000000000011100000000001110" cont="0"/>
        <request index="29" response="000000000000000000000000000000000000000" foes="000000000000000000000011100000000001110" cont="0"/>
        <request index="30" response="000000000000100000000000000000111110000" foes="000000000000111111111111100000111111110" cont="0"/>
        <request index="31" response="000000000000100000000000000000111110000" foes="000000000000111111111111100000111111110" cont="0"/>
        <request index="32" response="000000000000100000000000000000111110000" foes="000000000000111111111111100000111111110" cont="0"/>
        <request index="33" response="000000000000100000000000000000111110000" foes="000000000000111111111111100000111111110" cont="0"/>
        <request index="34" response="000000000000100000000000000000111110000" foes="000000000000111111111111100000111111110" cont="0"/>
        <request index="35" response="000000000000100000000000011111111110000" foes="000000000000111110000000011111111111110" cont="1"/>
        <request index="36" response="000000000000100000000000011111111110000" foes="000000000000111110000000011111111111110" cont="1"/>
        <request index="37" response="000000000000100000000000011111111110000" foes="000000000000111110000000011111111111110" cont="1"/>
        <request index="38" response="000000000000100000000000011111111110000" foes="000000000000111110000000011111111111110" cont="1"/>
    </junction>
    <junction id="1" type="dead_end" x="0.00" y="500.00" incLanes="E_0_1_0" intLanes="" shape="0.00,500.00 0.00,503.20 0.00,500.00"/>
    <junction id="2" type="dead_end" x="1000.00" y="500.00" incLanes="E_0_2_0 E_0_2_1 E_0_2_2 E_0_2_3 E_0_2_4" intLanes="" shape="1000.00,500.00 1000.00,484.00 1000.00,500.00"/>
    <junction id="3" type="dead_end" x="500.00" y="0.00" incLanes="E_0_3_0 E_0_3_1 E_0_3_2" intLanes="" shape="500.00,0.00 490.40,0.00 500.00,0.00"/>
    <junction id="4" type="dead_end" x="500.00" y="1000.00" incLanes="E_0_4_0 E_0_4_1 E_0_4_2 E_0_4_3" intLanes="" shape="500.00,1000.00 512.80,1000.00 500.00,1000.00"/>

    <junction id=":0_39_0" type="internal" x="500.48" y="500.53" incLanes=":0_4_0 E_3_0_0 E_3_0_1" intLanes=":0_13_0 :0_14_0 :0_14_1 :0_14_2 :0_17_0 :0_17_1 :0_17_2 :0_17_3 :0_17_4 :0_22_0 :0_22_1 :0_22_2 :0_22_3 :0_30_0 :0_30_1 :0_30_2 :0_30_3 :0_30_4 :0_35_0 :0_35_1 :0_35_2 :0_35_3"/>
    <junction id=":0_40_0" type="internal" x="500.28" y="502.69" incLanes=":0_4_1 E_3_0_0 E_3_0_1" intLanes=":0_13_0 :0_14_0 :0_14_1 :0_14_2 :0_17_0 :0_17_1 :0_17_2 :0_17_3 :0_17_4 :0_22_0 :0_22_1 :0_22_2 :0_22_3 :0_30_0 :0_30_1 :0_30_2 :0_30_3 :0_30_4 :0_35_0 :0_35_1 :0_35_2 :0_35_3"/>
    <junction id=":0_41_0" type="internal" x="500.10" y="504.72" incLanes=":0_4_2 E_3_0_0 E_3_0_1" intLanes=":0_13_0 :0_14_0 :0_14_1 :0_14_2 :0_17_0 :0_17_1 :0_17_2 :0_17_3 :0_17_4 :0_22_0 :0_22_1 :0_22_2 :0_22_3 :0_30_0 :0_30_1 :0_30_2 :0_30_3 :0_30_4 :0_35_0 :0_35_1 :0_35_2 :0_35_3"/>
    <junction id=":0_42_0" type="internal" x="499.92" y="506.62" incLanes=":0_4_3 E_3_0_0 E_3_0_1" intLanes=":0_13_0 :0_14_0 :0_14_1 :0_14_2 :0_17_0 :0_17_1 :0_17_2 :0_17_3 :0_17_4 :0_22_0 :0_22_1 :0_22_2 :0_22_3 :0_30_0 :0_30_1 :0_30_2 :0_30_3 :0_30_4 :0_35_0 :0_35_1 :0_35_2 :0_35_3"/>
    <junction id=":0_43_0" type="internal" x="499.75" y="508.41" incLanes=":0_4_4 E_3_0_0 E_3_0_1" intLanes=":0_13_0 :0_14_0 :0_14_1 :0_14_2 :0_17_0 :0_17_1 :0_17_2 :0_17_3 :0_17_4 :0_22_0 :0_22_1 :0_22_2 :0_22_3 :0_30_0 :0_30_1 :0_30_2 :0_30_3 :0_30_4 :0_35_0 :0_35_1 :0_35_2 :0_35_3"/>
    <junction id=":0_44_0" type="internal" x="505.73" y="500.14" incLanes=":0_14_0 E_1_0_0 E_1_0_1 E_1_0_2" intLanes=":0_1_0 :0_1_1 :0_1_2 :0_4_0 :0_4_1 :0_4_2 :0_4_3 :0_4_4 :0_22_0 :0_22_1 :0_22_2 :0_22_3 :0_26_0 :0_27_0 :0_27_1 :0_27_2 :0_30_0 :0_30_1 :0_30_2 :0_30_3 :0_30_4"/>
    <junction id=":0_45_0" type="internal" x="508.81" y="500.46" incLanes=":0_14_1 E_1_0_0 E_1_0_1 E_1_0_2" intLanes=":0_1_0 :0_1_1 :0_1_2 :0_4_0 :0_4_1 :0_4_2 :0_4_3 :0_4_4 :0_22_0 :0_22_1 :0_22_2 :0_22_3 :0_26_0 :0_27_0 :0_27_1 :0_27_2 :0_30_0 :0_30_1 :0_30_2 :0_30_3 :0_30_4"/>
    <junction id=":0_46_0" type="internal" x="510.56" y="500.55" incLanes=":0_14_2 E_1_0_0 E_1_0_1 E_1_0_2" intLanes=":0_1_0 :0_1_1 :0_1_2 :0_4_0 :0_4_1 :0_4_2 :0_4_3 :0_4_4 :0_22_0 :0_22_1 :0_22_2 :0_22_3 :0_26_0 :0_27_0 :0_27_1 :0_27_2 :0_30_0 :0_30_1 :0_30_2 :0_30_3 :0_30_4"/>
    <junction id=":0_47_0" type="internal" x="499.99" y="491.01" incLanes=":0_26_0 E_4_0_0 E_4_0_1" intLanes=":0_0_0 :0_1_0 :0_1_1 :0_1_2 :0_13_0 :0_14_0 :0_14_1 :0_14_2 :0_30_0 :0_30_1 :0_30_2 :0_30_3 :0_30_4 :0_35_0 :0_35_1 :0_35_2 :0_35_3"/>
    <junction id=":0_48_0" type="internal" x="500.48" y="500.99" incLanes=":0_35_0 E_2_0_0 E_2_0_1 E_2_0_2" intLanes=":0_1_0 :0_1_1 :0_1_2 :0_4_0 :0_4_1 :0_4_2 :0_4_3 :0_4_4 :0_9_0 :0_9_1 :0_9_2 :0_9_3 :0_13_0 :0_22_0 :0_22_1 :0_22_2 :0_22_3 :0_26_0"/>
    <junction id=":0_49_0" type="internal" x="498.01" y="500.66" incLanes=":0_35_1 E_2_0_0 E_2_0_1 E_2_0_2" intLanes=":0_1_0 :0_1_1 :0_1_2 :0_4_0 :0_4_1 :0_4_2 :0_4_3 :0_4_4 :0_9_0 :0_9_1 :0_9_2 :0_9_3 :0_13_0 :0_22_0 :0_22_1 :0_22_2 :0_22_3 :0_26_0"/>
    <junction id=":0_50_0" type="internal" x="495.60" y="500.24" incLanes=":0_35_2 E_2_0_0 E_2_0_1 E_2_0_2" intLanes=":0_1_0 :0_1_1 :0_1_2 :0_4_0 :0_4_1 :0_4_2 :0_4_3 :0_4_4 :0_9_0 :0_9_1 :0_9_2 :0_9_3 :0_13_0 :0_22_0 :0_22_1 :0_22_2 :0_22_3 :0_26_0"/>
    <junction id=":0_51_0" type="internal" x="493.49" y="499.87" incLanes=":0_35_3 E_2_0_0 E_2_0_1 E_2_0_2" intLanes=":0_1_0 :0_1_1 :0_1_2 :0_4_0 :0_4_1 :0_4_2 :0_4_3 :0_4_4 :0_9_0 :0_9_1 :0_9_2 :0_9_3 :0_13_0 :0_22_0 :0_22_1 :0_22_2 :0_22_3 :0_26_0"/>

    <connection from="E_1_0" to="E_0_3" fromLane="0" toLane="0" via=":0_27_0" tl="0" linkIndex="27" dir="r" state="O"/>
    <connection from="E_1_0" to="E_0_3" fromLane="0" toLane="1" via=":0_27_1" tl="0" linkIndex="28" dir="r" state="O"/>
    <connection from="E_1_0" to="E_0_3" fromLane="0" toLane="2" via=":0_27_2" tl="0" linkIndex="29" dir="r" state="O"/>
    <connection from="E_1_0" to="E_0_2" fromLane="1" toLane="0" via=":0_30_0" tl="0" linkIndex="30" dir="s" state="O"/>
    <connection from="E_1_0" to="E_0_2" fromLane="1" toLane="1" via=":0_30_1" tl="0" linkIndex="31" dir="s" state="O"/>
    <connection from="E_1_0" to="E_0_2" fromLane="1" toLane="2" via=":0_30_2" tl="0" linkIndex="32" dir="s" state="O"/>
    <connection from="E_1_0" to="E_0_2" fromLane="2" toLane="3" via=":0_30_3" tl="0" linkIndex="33" dir="s" state="O"/>
    <connection from="E_1_0" to="E_0_2" fromLane="2" toLane="4" via=":0_30_4" tl="0" linkIndex="34" dir="s" state="O"/>
    <connection from="E_1_0" to="E_0_4" fromLane="3" toLane="0" via=":0_35_0" tl="0" linkIndex="35" dir="l" state="o"/>
    <connection from="E_1_0" to="E_0_4" fromLane="3" toLane="1" via=":0_35_1" tl="0" linkIndex="36" dir="l" state="o"/>
    <connection from="E_1_0" to="E_0_4" fromLane="3" toLane="2" via=":0_35_2" tl="0" linkIndex="37" dir="l" state="o"/>
    <connection from="E_1_0" to="E_0_4" fromLane="3" toLane="3" via=":0_35_3" tl="0" linkIndex="38" dir="l" state="o"/>
    <connection from="E_2_0" to="E_0_4" fromLane="0" toLane="0" via=":0_9_0" tl="0" linkIndex="9" dir="r" state="O"/>
    <connection from="E_2_0" to="E_0_4" fromLane="0" toLane="1" via=":0_9_1" tl="0" linkIndex="10" dir="r" state="O"/>
    <connection from="E_2_0" to="E_0_4" fromLane="1" toLane="2" via=":0_9_2" tl="0" linkIndex="11" dir="r" state="O"/>
    <connection from="E_2_0" to="E_0_4" fromLane="1" toLane="3" via=":0_9_3" tl="0" linkIndex="12" dir="r" state="O"/>
    <connection from="E_2_0" to="E_0_1" fromLane="2" toLane="0" via=":0_13_0" tl="0" linkIndex="13" dir="s" state="O"/>
    <connection from="E_2_0" to="E_0_3" fromLane="3" toLane="0" via=":0_14_0" tl="0" linkIndex="14" dir="l" state="o"/>
    <connection from="E_2_0" to="E_0_3" fromLane="3" toLane="1" via=":0_14_1" tl="0" linkIndex="15" dir="l" state="o"/>
    <connection from="E_2_0" to="E_0_3" fromLane="3" toLane="2" via=":0_14_2" tl="0" linkIndex="16" dir="l" state="o"/>
    <connection from="E_3_0" to="E_0_2" fromLane="0" toLane="0" via=":0_17_0" tl="0" linkIndex="17" dir="r" state="o"/>
    <connection from="E_3_0" to="E_0_2" fromLane="0" toLane="1" via=":0_17_1" tl="0" linkIndex="18" dir="r" state="o"/>
    <connection from="E_3_0" to="E_0_2" fromLane="0" toLane="2" via=":0_17_2" tl="0" linkIndex="19" dir="r" state="o"/>
    <connection from="E_3_0" to="E_0_2" fromLane="0" toLane="3" via=":0_17_3" tl="0" linkIndex="20" dir="r" state="o"/>
    <connection from="E_3_0" to="E_0_2" fromLane="0" toLane="4" via=":0_17_4" tl="0" linkIndex="21" dir="r" state="o"/>
    <connection from="E_3_0" to="E_0_4" fromLane="1" toLane="0" via=":0_22_0" tl="0" linkIndex="22" dir="s" state="o"/>
    <connection from="E_3_0" to="E_0_4" fromLane="1" toLane="1" via=":0_22_1" tl="0" linkIndex="23" dir="s" state="o"/>
    <connection from="E_3_0" to="E_0_4" fromLane="1" toLane="2" via=":0_22_2" tl="0" linkIndex="24" dir="s" state="o"/>
    <connection from="E_3_0" to="E_0_4" fromLane="1" toLane="3" via=":0_22_3" tl="0" linkIndex="25" dir="s" state="o"/>
    <connection from="E_3_0" to="E_0_1" fromLane="2" toLane="0" via=":0_26_0" tl="0" linkIndex="26" dir="l" state="o"/>
    <connection from="E_4_0" to="E_0_1" fromLane="0" toLane="0" via=":0_0_0" tl="0" linkIndex="0" dir="r" state="o"/>
    <connection from="E_4_0" to="E_0_3" fromLane="1" toLane="0" via=":0_1_0" tl="0" linkIndex="1" dir="s" state="o"/>
    <connection from="E_4_0" to="E_0_3" fromLane="1" toLane="1" via=":0_1_1" tl="0" linkIndex="2" dir="s" state="o"/>
    <connection from="E_4_0" to="E_0_3" fromLane="1" toLane="2" via=":0_1_2" tl="0" linkIndex="3" dir="s" state="o"/>
    <connection from="E_4_0" to="E_0_2" fromLane="2" toLane="0" via=":0_4_0" tl="0" linkIndex="4" dir="l" state="o"/>
    <connection from="E_4_0" to="E_0_2" fromLane="2" toLane="1" via=":0_4_1" tl="0" linkIndex="5" dir="l" state="o"/>
    <connection from="E_4_0" to="E_0_2" fromLane="2" toLane="2" via=":0_4_2" tl="0" linkIndex="6" dir="l" state="o"/>
    <connection from="E_4_0" to="E_0_2" fromLane="2" toLane="3" via=":0_4_3" tl="0" linkIndex="7" dir="l" state="o"/>
    <connection from="E_4_0" to="E_0_2" fromLane="2" toLane="4" via=":0_4_4" tl="0" linkIndex="8" dir="l" state="o"/>

    <connection from=":0_0" to="E_0_1" fromLane="0" toLane="0" dir="r" state="M"/>
    <connection from=":0_1" to="E_0_3" fromLane="0" toLane="0" dir="s" state="M"/>
    <connection from=":0_1" to="E_0_3" fromLane="1" toLane="1" dir="s" state="M"/>
    <connection from=":0_1" to="E_0_3" fromLane="2" toLane="2" dir="s" state="M"/>
    <connection from=":0_4" to="E_0_2" fromLane="0" toLane="0" via=":0_39_0" dir="l" state="m"/>
    <connection from=":0_39" to="E_0_2" fromLane="0" toLane="0" dir="l" state="M"/>
    <connection from=":0_4" to="E_0_2" fromLane="1" toLane="1" via=":0_40_0" dir="l" state="m"/>
    <connection from=":0_40" to="E_0_2" fromLane="0" toLane="1" dir="l" state="M"/>
    <connection from=":0_4" to="E_0_2" fromLane="2" toLane="2" via=":0_41_0" dir="l" state="m"/>
    <connection from=":0_41" to="E_0_2" fromLane="0" toLane="2" dir="l" state="M"/>
    <connection from=":0_4" to="E_0_2" fromLane="3" toLane="3" via=":0_42_0" dir="l" state="m"/>
    <connection from=":0_42" to="E_0_2" fromLane="0" toLane="3" dir="l" state="M"/>
    <connection from=":0_4" to="E_0_2" fromLane="4" toLane="4" via=":0_43_0" dir="l" state="m"/>
    <connection from=":0_43" to="E_0_2" fromLane="0" toLane="4" dir="l" state="M"/>